power-flow-agent/results/ieee14/2026-09-23/gpt-5.6-sol/plan_act_nogate__matched/traces/02_case14-ambiguous-007-s0.transcript.txt
==============================================================================
TRANSCRIPT  plan_act_nogate  |  openrouter:openai/gpt-5.6-sol  |  case14  |  case14-ambiguous-007-s0  run 0
==============================================================================
date: 2026-09-23   seed: 0   difficulty: ambiguous   tool variant: load_split

[system]   (hash 7da5e2a37ec4, from methods/plan_act_nogate/method.json prompt_files)
You are a power system power-flow analysis assistant. You help the user complete power system analysis tasks from natural-language requests.

## What you can do
You complete tasks by calling tool functions:
1. Load an IEEE standard test system (14, 30, 57, 118, 300 buses)
2. Run AC power flow
3. Modify the load at a bus and re-solve
4. Disconnect or reconnect a line and re-solve
5. Query the network status
6. Run an N-1 contingency analysis (disconnect branches one at a time and rank the worst cases)
7. Generate remedial-action suggestions (what-if load shedding or voltage adjustment) to reduce violation risk

## Key rules
- Never fabricate any numerical result. Every voltage, power, loss, or loading value must come from a tool return value.
- If a tool reports an error or a non-converged power flow, say so explicitly and do not report numbers for that state.
- If the request is ambiguous, state the interpretation you are using.
- Bus and line identifiers in the request are MATPOWER 1-based ids; pass them to the tools as given, unless the request itself states a different indexing convention for that identifier (e.g. "(0-based)"), in which case convert it to the MATPOWER 1-based id before calling any tool.
- After a network modification, re-solve before reporting any value.
- Always reply in English.

## Reply format
After each analysis, reply in this structure:
1. One-sentence summary
2. Key numbers (total load, total generation, total losses, voltage range) taken from the tool outputs
3. Violations, if any
4. Suggested next step

[user]   (complete message, stored at run time)
Load the 14-bus test case (case14) and disconnect the line between bus 6 and bus 13 (1-based).

[tools available to the model]   (function-calling schema, --tool-variant load_split; enum values and defaults as sent)
  load_case(case_name: string* in {case14, case30, case57, case118, case300})  Load IEEE test case.
  run_powerflow()  Run power flow on current case.
  disconnect_line(from_bus: integer*, to_bus: integer*)  Disconnect line/branch between two buses and recompute.
  reconnect_line(from_bus: integer*, to_bus: integer*)  Reconnect line/branch between two buses and recompute.
  get_most_loaded_branch()  Get most loaded branch.
  run_n1_contingency(top_k: integer (default 5), criteria: string in {max_violations, max_overload, min_voltage} (default max_violations), max_candidates: integer (default 0))  Run N-1 contingency analysis.
  recommend_remedial_actions(max_actions: integer (default 5), allow_load_shed: boolean (default True), allow_voltage_control: boolean (default True), include_best_comparison: boolean (default True))  Recommend remedial actions.
  apply_remedial_action(action_index: integer*, confirmed: boolean (default False))  Apply one remedial action by index.
  get_status()  Get current network status.
  generate_plot(plot_type: string* in {voltage_heatmap, flow_diagram, violation_overview, comparison})  Generate one plot.
  set_active_load(bus_id: integer*, p_mw: number*)  Set a bus's active load (MW) and recompute. Use this when the request states only an active-power value. This tool has no reactive-power argument: the bus's present reactive load is always left unchanged. If the request also states a reactive-power value, use set_load instead.
  set_load(bus_id: integer*, p_mw: number*, q_mvar: number*)  Set a bus's active and reactive load (MW, Mvar) and recompute. Use this only when the request states both values. If the request states only an active-power value, use set_active_load instead -- do not invent a reactive-power value here to fill this in.

[planner system prompt]   (hash 76ea681e520a; as assembled today from methods/plan_act; the planning call sends this plus the request)
You are the planner of a power-system analysis agent. You cannot call tools yourself. Given the user's request, output ONLY a JSON object of the form
{"plan": [{"tool": "<tool_name>", "args": {...}}, ...]}
listing, in execution order, every tool call needed to answer the request. Use only the tools below with exactly these argument names (* = required); where an argument lists allowed values, use one of them verbatim. Bus and line identifiers in the request are MATPOWER 1-based ids; pass them to the tools as given, unless the request itself states a different indexing convention for that identifier (e.g. "(0-based)"), in which case convert it to the MATPOWER 1-based id. Do not include explanations, markdown, or any text outside the JSON.

Available tools:
- load_case(case_name: string in {case14, case30, case57, case118, case300}*): Load IEEE test case.
- run_powerflow((none)): Run power flow on current case.
- disconnect_line(from_bus: integer*, to_bus: integer*): Disconnect line/branch between two buses and recompute.
- reconnect_line(from_bus: integer*, to_bus: integer*): Reconnect line/branch between two buses and recompute.
- get_most_loaded_branch((none)): Get most loaded branch.
- run_n1_contingency(top_k: integer, criteria: string in {max_violations, max_overload, min_voltage}, max_candidates: integer): Run N-1 contingency analysis.
- recommend_remedial_actions(max_actions: integer, allow_load_shed: boolean, allow_voltage_control: boolean, include_best_comparison: boolean): Recommend remedial actions.
- apply_remedial_action(action_index: integer*, confirmed: boolean): Apply one remedial action by index.
- get_status((none)): Get current network status.
- generate_plot(plot_type: string in {voltage_heatmap, flow_diagram, violation_overview, comparison}*): Generate one plot.
- set_active_load(bus_id: integer*, p_mw: number*): Set a bus's active load (MW) and recompute. Use this when the request states only an active-power value. This tool has no reactive-power argument: the bus's present reactive load is always left unchanged. If the request also states a reactive-power value, use set_load instead.
- set_load(bus_id: integer*, p_mw: number*, q_mvar: number*): Set a bus's active and reactive load (MW, Mvar) and recompute. Use this only when the request states both values. If the request states only an active-power value, use set_active_load instead -- do not invent a reactive-power value here to fill this in.

[planner output]
[
 {
  "tool": "load_case",
  "args": {
   "case_name": "case14"
  }
 },
 {
  "tool": "disconnect_line",
  "args": {
   "from_bus": 6,
   "to_bus": 13
  }
 }
]

--- round 1 ---
[assistant]   (608 in / 40 out tokens, 11.1 s)
{"plan":[{"tool":"load_case","args":{"case_name":"case14"}},{"tool":"disconnect_line","args":{"from_bus":6,"to_bus":13}}]}

--- round 2 ---
[tool load_case]   (gate: not applied)
{"case_name": "case14", "n_buses": 14, "n_generators": 5, "n_lines": 20, "n_loads": 11, "total_load_mw": 261.9028323717408, "total_gen_capacity_mw": 772.4000000000001}
[tool disconnect_line]   (gate: pass)
{"case_name": "case14", "converged": true, "bus_voltages": [{"bus_id": 1, "vm_pu": 1.06, "va_deg": 0.0, "is_violation": true, "violation_type": "overvoltage"}, {"bus_id": 2, "vm_pu": 1.045, "va_deg": -5.104476346710827, "is_violation": false, "violation_type": null}, {"bus_id": 3, "vm_pu": 1.01, "va_deg": -13.049806280383295, "is_violation": false, "violation_type": null}, {"bus_id": 4, "vm_pu": 1.0159252586236356, "va_deg": -10.52365961339392, "is_violation": false, "violation_type": null}, {"bus_id": 5, "vm_pu": 1.0186616250652918, "va_deg": -8.901519405492504, "is_violation": false, "violation_type": null}, {"bus_id": 6, "vm_pu": 1.07, "va_deg": -14.071684170517187, "is_violation": true, "violation_type": "overvoltage"}, {"bus_id": 7, "vm_pu": 1.0571672643378551, "va_deg": -13.827995838605164, "is_violation": true, "violation_type": "overvoltage"}, {"bus_id": 8, "vm_pu": 1.09, "va_deg": -13.827995838605165, "is_violation": true, "violation_type": "overvoltage"}, {"bus_id": 9, "vm_pu": 1.0477181845625247, "va_deg": -15.550752418364166, "is_violation": false, "violation_type": null}, {"bus_id": 10, "vm_pu": 1.0436495835559754, "va_deg": -15.586970669656075, "is_violation": false, "violation_type": null}, {"bus_id": 11, "vm_pu": 1.0530887682307093, "va_deg": -14.954531316229685, "is_violation": true, "violation_type": "overvoltage"}, {"bus_id": 12, "vm_pu": 1.0333304256287201, "va_deg": -16.261661548416793, "is_violation": false, "violation_type": null}, {"bus_id": 13, "vm_pu": 0.9989276391872052, "va_deg": -17.231715948600012, "is_violation": false, "violation_type": null}, {"bus_id": 14, "vm_pu": 1.0087465518591328, "va_deg": -17.285695213373444, "is_violation": false, "violation_type": null}], "line_flows": [{"line_id": 0, "from_bus": 1, "to_bus": 2, "p_from_mw": 160.56919209686365, "q_from_mvar": -21.261556985880922, "loading_percent": 1.5434604135846604, "is_violation": false}, {"line_id": 1, "from_bus": 1, "to_bus": 5, "p_from_mw": 76.58835795975027, "q_from_mvar": 4.1598724838372885, "loading_percent": 0.7315932798430487, "is_violation": false}, {"line_id": 2, "from_bus": 2, "to_bus": 3, "p_from_mw": 75.06531019569819, "q_from_mvar": 3.383933621977031, "loading_percent": 0.7266890720565405, "is_violation": false}, {"line_id": 3, "from_bus": 2, "to_bus": 4, "p_from_mw": 57.215763527365546, "q_from_mvar": -0.7901205509095255, "loading_percent": 0.5531024972062153, "is_violation": false}, {"line_id": 4, "from_bus": 2, "to_bus": 5, "p_from_mw": 41.693644823257046, "q_from_mvar": 1.6280337357810333, "loading_percent": 0.4051533721110027, "is_violation": false}, {"line_id": 5, "from_bus": 3, "to_bus": 4, "p_from_mw": -23.914193305174635, "q_from_mvar": 5.800697532795075, "loading_percent": 0.24923403146582088, "is_violation": false}, {"line_id": 6, "from_bus": 4, "to_bus": 5, "p_from_mw": -64.83327729151999, "q_from_mvar": 14.937135004177819, "loading_percent": 0.6615031253270854, "is_violation": false}, {"line_id": 7, "from_bus": 6, "to_bus": 11, "p_from_mw": 10.671823976549193, "q_from_mvar": 4.068719236573009, "loading_percent": 0.10781774813391529, "is_violation": false}, {"line_id": 8, "from_bus": 6, "to_bus": 12, "p_from_mw": 19.529264803549776, "q_from_mvar": 6.270506993261706, "loading_percent": 0.1936302425028659, "is_violation": false}, {"line_id": 9, "from_bus": 6, "to_bus": 13, "p_from_mw": 0.0, "q_from_mvar": 0.0, "loading_percent": 0.0, "is_violation": false}, {"line_id": 10, "from_bus": 9, "to_bus": 10, "p_from_mw": 2.3798868414720173, "q_from_mvar": 4.149022153264514, "loading_percent": 0.04611388247015503, "is_violation": false}, {"line_id": 11, "from_bus": 9, "to_bus": 14, "p_from_mw": 15.57574277863922, "q_from_mvar": 7.958227545665722, "loading_percent": 0.1686306178001805, "is_violation": false}, {"line_id": 12, "from_bus": 10, "to_bus": 11, "p_from_mw": -7.181644497574326, "q_from_mvar": -2.0261923520317557, "loading_percent": 0.07222132627858903, "is_violation": false}, {"line_id": 13, "from_bus": 12, "to_bus": 13, "p_from_mw": 12.820571782159107, "q_from_mvar": 3.689301977175837, "loading_percent": 0.13040935938260803, "is_violation": false}, {"line_id": 14, "from_bus": 13, "to_bus": 14, "p_from_mw": -0.8953885757024521, "q_from_mvar": -2.378440425716955, "loading_percent": 0.025698236235540576, "is_violation": false}, {"line_id": 100000, "from_bus": 4, "to_bus": 7, "p_from_mw": 30.268567487538867, "q_from_mvar": -8.261395486164202, "loading_percent": 0.3119586085381978, "is_violation": false}, {"line_id": 100001, "from_bus": 4, "to_bus": 9, "p_from_mw": 17.30629127945625, "q_from_mvar": 0.8932256073316837, "loading_percent": 0.1722997871068249, "is_violation": false}, {"line_id": 100002, "from_bus": 5, "to_bus": 6, "p_from_mw": 41.81720611301851, "q_from_mvar": 11.856170406487552, "loading_percent": 0.43100200271296774, "is_violation": false}, {"line_id": 100003, "from_bus": 7, "to_bus": 8, "p_from_mw": 2.89094115294221e-14, "q_from_mvar": -19.704622958091175, "loading_percent": 0.18827351380477989, "is_violation": false}, {"line_id": 100004, "from_bus": 7, "to_bus": 9, "p_from_mw": 30.26856748577986, "q_from_mvar": 9.535406503937972, "loading_percent": 0.303221216928321, "is_violation": false}], "total_generation_mw": 276.66348753955316, "total_load_mw": 261.9028323717408, "total_loss_mw": 14.760655219011168, "voltage_violations": [{"bus_id": 1, "vm_pu": 1.06, "va_deg": 0.0, "is_violation": true, "violation_type": "overvoltage"}, {"bus_id": 6, "vm_pu": 1.07, "va_deg": -14.071684170517187, "is_violation": true, "violation_type": "overvoltage"}, {"bus_id": 7, "vm_pu": 1.0571672643378551, "va_deg": -13.827995838605164, "is_violation": true, "violation_type": "overvoltage"}, {"bus_id": 8, "vm_pu": 1.09, "va_deg": -13.827995838605165, "is_violation": true, "violation_type": "overvoltage"}, {"bus_id": 11, "vm_pu": 1.0530887682307093, "va_deg": -14.954531316229685, "is_violation": true, "violation_type": "overvoltage"}], "thermal_violations": [], "summary_text": "", "solver_backend": "pandapower", "llm_prompt": null, "llm_response": null}

--- round 3 ---
[assistant final]   (3089 in / 193 out tokens, 3.8 s)
The IEEE 14-bus case was loaded, the line between buses 6 and 13 was disconnected, and the resulting AC power flow converged.

**Key numbers**
- Total load: **261.903 MW**
- Total generation: **276.663 MW**
- Total losses: **14.761 MW**
- Voltage range: **0.9989–1.0900 p.u.**

**Violations**
- Overvoltage at buses **1 (1.060 p.u.)**, **6 (1.070 p.u.)**, **7 (1.0572 p.u.)**, **8 (1.090 p.u.)**, and **11 (1.0531 p.u.)**
- No thermal violations
- The disconnected 6–13 line has **0 MW / 0 MVAr** flow.

**Suggested next step**
Evaluate voltage-control adjustments to reduce the five overvoltage violations.
